examples/data/enwl/lv-network-models/network_17/Feeder_7/Loads.dss
New Load.LOAD1 Phases=1 Bus1=167.1 kV=0.23 kW=1 PF=0.95
New Load.LOAD2 Phases=1 Bus1=222.3 kV=0.23 kW=1 PF=0.95
New Load.LOAD3 Phases=1 Bus1=237.2 kV=0.23 kW=1 PF=0.95
New Load.LOAD4 Phases=1 Bus1=238.2 kV=0.23 kW=1 PF=0.95
New Load.LOAD5 Phases=1 Bus1=285.2 kV=0.23 kW=1 PF=0.95
New Load.LOAD6 Phases=1 Bus1=359.1 kV=0.23 kW=1 PF=0.95
New Load.LOAD7 Phases=1 Bus1=370.3 kV=0.23 kW=1 PF=0.95
New Load.LOAD8 Phases=1 Bus1=400.1 kV=0.23 kW=1 PF=0.95
New Load.LOAD9 Phases=1 Bus1=417.3 kV=0.23 kW=1 PF=0.95
New Load.LOAD10 Phases=1 Bus1=465.2 kV=0.23 kW=1 PF=0.95
New Load.LOAD11 Phases=1 Bus1=486.1 kV=0.23 kW=1 PF=0.95
New Load.LOAD12 Phases=1 Bus1=563.3 kV=0.23 kW=1 PF=0.95
New Load.LOAD13 Phases=1 Bus1=564.3 kV=0.23 kW=1 PF=0.95
New Load.LOAD14 Phases=1 Bus1=600.1 kV=0.23 kW=1 PF=0.95
New Load.LOAD15 Phases=1 Bus1=601.1 kV=0.23 kW=1 PF=0.95
New Load.LOAD16 Phases=1 Bus1=662.1 kV=0.23 kW=1 PF=0.95
New Load.LOAD17 Phases=1 Bus1=663.1 kV=0.23 kW=1 PF=0.95
New Load.LOAD18 Phases=1 Bus1=679.3 kV=0.23 kW=1 PF=0.95
New Load.LOAD19 Phases=1 Bus1=680.2 kV=0.23 kW=1 PF=0.95
New Load.LOAD20 Phases=1 Bus1=684.2 kV=0.23 kW=1 PF=0.95
New Load.LOAD21 Phases=1 Bus1=685.2 kV=0.23 kW=1 PF=0.95
New Load.LOAD22 Phases=1 Bus1=693.2 kV=0.23 kW=1 PF=0.95
New Load.LOAD23 Phases=1 Bus1=708.2 kV=0.23 kW=1 PF=0.95
New Load.LOAD24 Phases=1 Bus1=713.1 kV=0.23 kW=1 PF=0.95
New Load.LOAD25 Phases=1 Bus1=714.1 kV=0.23 kW=1 PF=0.95
New Load.LOAD26 Phases=1 Bus1=724.1 kV=0.23 kW=1 PF=0.95
New Load.LOAD27 Phases=1 Bus1=726.3 kV=0.23 kW=1 PF=0.95
New Load.LOAD28 Phases=1 Bus1=732.1 kV=0.23 kW=1 PF=0.95
New Load.LOAD29 Phases=1 Bus1=880.3 kV=0.23 kW=1 PF=0.95
New Load.LOAD30 Phases=1 Bus1=1038.3 kV=0.23 kW=1 PF=0.95
New Load.LOAD31 Phases=1 Bus1=1040.2 kV=0.23 kW=1 PF=0.95
New Load.LOAD32 Phases=1 Bus1=1043.2 kV=0.23 kW=1 PF=0.95
New Load.LOAD33 Phases=1 Bus1=1085.1 kV=0.23 kW=1 PF=0.95
New Load.LOAD34 Phases=1 Bus1=1088.2 kV=0.23 kW=1 PF=0.95
New Load.LOAD35 Phases=1 Bus1=1111.3 kV=0.23 kW=1 PF=0.95
New Load.LOAD36 Phases=1 Bus1=1112.3 kV=0.23 kW=1 PF=0.95
New Load.LOAD37 Phases=1 Bus1=1118.3 kV=0.23 kW=1 PF=0.95
New Load.LOAD38 Phases=1 Bus1=1125.1 kV=0.23 kW=1 PF=0.95
New Load.LOAD39 Phases=1 Bus1=1146.1 kV=0.23 kW=1 PF=0.95
New Load.LOAD40 Phases=1 Bus1=1156.1 kV=0.23 kW=1 PF=0.95
New Load.LOAD41 Phases=1 Bus1=1162.2 kV=0.23 kW=1 PF=0.95
New Load.LOAD42 Phases=1 Bus1=1183.1 kV=0.23 kW=1 PF=0.95
New Load.LOAD43 Phases=1 Bus1=1197.1 kV=0.23 kW=1 PF=0.95
New Load.LOAD44 Phases=1 Bus1=1202.3 kV=0.23 kW=1 PF=0.95
New Load.LOAD45 Phases=1 Bus1=1204.1 kV=0.23 kW=1 PF=0.95
New Load.LOAD46 Phases=1 Bus1=1236.1 kV=0.23 kW=1 PF=0.95
New Load.LOAD47 Phases=1 Bus1=1237.2 kV=0.23 kW=1 PF=0.95
New Load.LOAD48 Phases=1 Bus1=1267.2 kV=0.23 kW=1 PF=0.95
New Load.LOAD49 Phases=1 Bus1=1274.1 kV=0.23 kW=1 PF=0.95
New Load.LOAD50 Phases=1 Bus1=1280.3 kV=0.23 kW=1 PF=0.95
New Load.LOAD51 Phases=1 Bus1=1288.2 kV=0.23 kW=1 PF=0.95
New Load.LOAD52 Phases=1 Bus1=1290.2 kV=0.23 kW=1 PF=0.95
New Load.LOAD53 Phases=1 Bus1=1304.3 kV=0.23 kW=1 PF=0.95
New Load.LOAD54 Phases=1 Bus1=1320.1 kV=0.23 kW=1 PF=0.95
New Load.LOAD55 Phases=1 Bus1=1321.1 kV=0.23 kW=1 PF=0.95
New Load.LOAD56 Phases=1 Bus1=1325.2 kV=0.23 kW=1 PF=0.95
New Load.LOAD57 Phases=1 Bus1=1381.1 kV=0.23 kW=1 PF=0.95
New Load.LOAD58 Phases=1 Bus1=1403.1 kV=0.23 kW=1 PF=0.95
New Load.LOAD59 Phases=1 Bus1=1434.1 kV=0.23 kW=1 PF=0.95
New Load.LOAD60 Phases=1 Bus1=1445.2 kV=0.23 kW=1 PF=0.95
New Load.LOAD61 Phases=1 Bus1=1458.1 kV=0.23 kW=1 PF=0.95
New Load.LOAD62 Phases=1 Bus1=1522.2 kV=0.23 kW=1 PF=0.95
New Load.LOAD63 Phases=1 Bus1=1545.1 kV=0.23 kW=1 PF=0.95
New Load.LOAD64 Phases=1 Bus1=1546.1 kV=0.23 kW=1 PF=0.95
New Load.LOAD65 Phases=1 Bus1=1548.3 kV=0.23 kW=1 PF=0.95
New Load.LOAD66 Phases=1 Bus1=1549.3 kV=0.23 kW=1 PF=0.95
New Load.LOAD67 Phases=1 Bus1=1553.1 kV=0.23 kW=1 PF=0.95
New Load.LOAD68 Phases=1 Bus1=1554.2 kV=0.23 kW=1 PF=0.95
New Load.LOAD69 Phases=1 Bus1=1599.3 kV=0.23 kW=1 PF=0.95
New Load.LOAD70 Phases=1 Bus1=1600.2 kV=0.23 kW=1 PF=0.95
New Load.LOAD71 Phases=1 Bus1=1603.1 kV=0.23 kW=1 PF=0.95
New Load.LOAD72 Phases=1 Bus1=1637.2 kV=0.23 kW=1 PF=0.95
New Load.LOAD73 Phases=1 Bus1=1638.3 kV=0.23 kW=1 PF=0.95
New Load.LOAD74 Phases=1 Bus1=1664.2 kV=0.23 kW=1 PF=0.95
New Load.LOAD75 Phases=1 Bus1=1666.1 kV=0.23 kW=1 PF=0.95
New Load.LOAD76 Phases=1 Bus1=1671.3 kV=0.23 kW=1 PF=0.95
New Load.LOAD77 Phases=1 Bus1=1672.3 kV=0.23 kW=1 PF=0.95
New Load.LOAD78 Phases=1 Bus1=1684.2 kV=0.23 kW=1 PF=0.95
New Load.LOAD79 Phases=1 Bus1=1697.2 kV=0.23 kW=1 PF=0.95
New Load.LOAD80 Phases=1 Bus1=1717.3 kV=0.23 kW=1 PF=0.95
New Load.LOAD81 Phases=1 Bus1=1721.1 kV=0.23 kW=1 PF=0.95
New Load.LOAD82 Phases=1 Bus1=1722.1 kV=0.23 kW=1 PF=0.95
New Load.LOAD83 Phases=1 Bus1=1725.3 kV=0.23 kW=1 PF=0.95
New Load.LOAD84 Phases=1 Bus1=1736.1 kV=0.23 kW=1 PF=0.95
New Load.LOAD85 Phases=1 Bus1=1747.3 kV=0.23 kW=1 PF=0.95
New Load.LOAD86 Phases=1 Bus1=1751.1 kV=0.23 kW=1 PF=0.95
New Load.LOAD87 Phases=1 Bus1=1754.3 kV=0.23 kW=1 PF=0.95
New Load.LOAD88 Phases=1 Bus1=1761.3 kV=0.23 kW=1 PF=0.95
New Load.LOAD89 Phases=1 Bus1=1784.1 kV=0.23 kW=1 PF=0.95
New Load.LOAD90 Phases=1 Bus1=1803.2 kV=0.23 kW=1 PF=0.95
New Load.LOAD91 Phases=1 Bus1=1993.2 kV=0.23 kW=1 PF=0.95
New Load.LOAD92 Phases=1 Bus1=1994.2 kV=0.23 kW=1 PF=0.95
New Load.LOAD93 Phases=1 Bus1=1997.3 kV=0.23 kW=1 PF=0.95
New Load.LOAD94 Phases=1 Bus1=1998.3 kV=0.23 kW=1 PF=0.95
New Load.LOAD95 Phases=1 Bus1=2012.2 kV=0.23 kW=1 PF=0.95
New Load.LOAD96 Phases=1 Bus1=2013.2 kV=0.23 kW=1 PF=0.95
New Load.LOAD97 Phases=1 Bus1=2014.2 kV=0.23 kW=1 PF=0.95
New Load.LOAD98 Phases=1 Bus1=2015.2 kV=0.23 kW=1 PF=0.95
New Load.LOAD99 Phases=1 Bus1=2029.2 kV=0.23 kW=1 PF=0.95
New Load.LOAD100 Phases=1 Bus1=2034.2 kV=0.23 kW=1 PF=0.95
New Load.LOAD101 Phases=1 Bus1=2163.2 kV=0.23 kW=1 PF=0.95
New Load.LOAD102 Phases=1 Bus1=2246.3 kV=0.23 kW=1 PF=0.95
New Load.LOAD103 Phases=1 Bus1=2253.1 kV=0.23 kW=1 PF=0.95
New Load.LOAD104 Phases=1 Bus1=2254.3 kV=0.23 kW=1 PF=0.95
New Load.LOAD105 Phases=1 Bus1=2255.3 kV=0.23 kW=1 PF=0.95
New Load.LOAD106 Phases=1 Bus1=2256.3 kV=0.23 kW=1 PF=0.95
New Load.LOAD107 Phases=1 Bus1=2257.3 kV=0.23 kW=1 PF=0.95
New Load.LOAD108 Phases=1 Bus1=2258.3 kV=0.23 kW=1 PF=0.95
New Load.LOAD109 Phases=1 Bus1=2259.3 kV=0.23 kW=1 PF=0.95
New Load.LOAD110 Phases=1 Bus1=2260.3 kV=0.23 kW=1 PF=0.95
New Load.LOAD111 Phases=1 Bus1=2261.3 kV=0.23 kW=1 PF=0.95
New Load.LOAD112 Phases=1 Bus1=2262.3 kV=0.23 kW=1 PF=0.95
New Load.LOAD113 Phases=1 Bus1=2263.3 kV=0.23 kW=1 PF=0.95
New Load.LOAD114 Phases=1 Bus1=2264.3 kV=0.23 kW=1 PF=0.95
New Load.LOAD115 Phases=1 Bus1=2265.3 kV=0.23 kW=1 PF=0.95
New Load.LOAD116 Phases=1 Bus1=2266.3 kV=0.23 kW=1 PF=0.95
New Load.LOAD117 Phases=1 Bus1=2267.3 kV=0.23 kW=1 PF=0.95
New Load.LOAD118 Phases=1 Bus1=2268.3 kV=0.23 kW=1 PF=0.95
New Load.LOAD119 Phases=1 Bus1=2269.3 kV=0.23 kW=1 PF=0.95
New Load.LOAD120 Phases=1 Bus1=2301.2 kV=0.23 kW=1 PF=0.95
New Load.LOAD121 Phases=1 Bus1=2430.3 kV=0.23 kW=1 PF=0.95